# CIF file
# This file was generated by FINDSYM
# Harold T. Stokes, Branton J. Campbell, Dorian M. Hatch
# Brigham Young University, Provo, Utah, USA
 
data_findsym-output
 
_symmetry_space_group_name_H-M "F 4/m -3 2/m"
_symmetry_Int_Tables_number 225
 
_cell_length_a       4.00763
_cell_length_b       4.00763
_cell_length_c       4.00763
_cell_angle_alpha   90.00000
_cell_angle_beta    90.00000
_cell_angle_gamma   90.00000
 
loop_
_space_group_symop_operation_xyz
x,y,z
x,-y,-z
-x,y,-z
-x,-y,z
y,z,x
y,-z,-x
-y,z,-x
-y,-z,x
z,x,y
z,-x,-y
-z,x,-y
-z,-x,y
-y,-x,-z
-y,x,z
y,-x,z
y,x,-z
-x,-z,-y
-x,z,y
x,-z,y
x,z,-y
-z,-y,-x
-z,y,x
z,-y,x
z,y,-x
-x,-y,-z
-x,y,z
x,-y,z
x,y,-z
-y,-z,-x
-y,z,x
y,-z,x
y,z,-x
-z,-x,-y
-z,x,y
z,-x,y
z,x,-y
y,x,z
y,-x,-z
-y,x,-z
-y,-x,z
x,z,y
x,-z,-y
-x,z,-y
-x,-z,y
z,y,x
z,-y,-x
-z,y,-x
-z,-y,x
x,y+1/2,z+1/2
x,-y+1/2,-z+1/2
-x,y+1/2,-z+1/2
-x,-y+1/2,z+1/2
y,z+1/2,x+1/2
y,-z+1/2,-x+1/2
-y,z+1/2,-x+1/2
-y,-z+1/2,x+1/2
z,x+1/2,y+1/2
z,-x+1/2,-y+1/2
-z,x+1/2,-y+1/2
-z,-x+1/2,y+1/2
-y,-x+1/2,-z+1/2
-y,x+1/2,z+1/2
y,-x+1/2,z+1/2
y,x+1/2,-z+1/2
-x,-z+1/2,-y+1/2
-x,z+1/2,y+1/2
x,-z+1/2,y+1/2
x,z+1/2,-y+1/2
-z,-y+1/2,-x+1/2
-z,y+1/2,x+1/2
z,-y+1/2,x+1/2
z,y+1/2,-x+1/2
-x,-y+1/2,-z+1/2
-x,y+1/2,z+1/2
x,-y+1/2,z+1/2
x,y+1/2,-z+1/2
-y,-z+1/2,-x+1/2
-y,z+1/2,x+1/2
y,-z+1/2,x+1/2
y,z+1/2,-x+1/2
-z,-x+1/2,-y+1/2
-z,x+1/2,y+1/2
z,-x+1/2,y+1/2
z,x+1/2,-y+1/2
y,x+1/2,z+1/2
y,-x+1/2,-z+1/2
-y,x+1/2,-z+1/2
-y,-x+1/2,z+1/2
x,z+1/2,y+1/2
x,-z+1/2,-y+1/2
-x,z+1/2,-y+1/2
-x,-z+1/2,y+1/2
z,y+1/2,x+1/2
z,-y+1/2,-x+1/2
-z,y+1/2,-x+1/2
-z,-y+1/2,x+1/2
x+1/2,y,z+1/2
x+1/2,-y,-z+1/2
-x+1/2,y,-z+1/2
-x+1/2,-y,z+1/2
y+1/2,z,x+1/2
y+1/2,-z,-x+1/2
-y+1/2,z,-x+1/2
-y+1/2,-z,x+1/2
z+1/2,x,y+1/2
z+1/2,-x,-y+1/2
-z+1/2,x,-y+1/2
-z+1/2,-x,y+1/2
-y+1/2,-x,-z+1/2
-y+1/2,x,z+1/2
y+1/2,-x,z+1/2
y+1/2,x,-z+1/2
-x+1/2,-z,-y+1/2
-x+1/2,z,y+1/2
x+1/2,-z,y+1/2
x+1/2,z,-y+1/2
-z+1/2,-y,-x+1/2
-z+1/2,y,x+1/2
z+1/2,-y,x+1/2
z+1/2,y,-x+1/2
-x+1/2,-y,-z+1/2
-x+1/2,y,z+1/2
x+1/2,-y,z+1/2
x+1/2,y,-z+1/2
-y+1/2,-z,-x+1/2
-y+1/2,z,x+1/2
y+1/2,-z,x+1/2
y+1/2,z,-x+1/2
-z+1/2,-x,-y+1/2
-z+1/2,x,y+1/2
z+1/2,-x,y+1/2
z+1/2,x,-y+1/2
y+1/2,x,z+1/2
y+1/2,-x,-z+1/2
-y+1/2,x,-z+1/2
-y+1/2,-x,z+1/2
x+1/2,z,y+1/2
x+1/2,-z,-y+1/2
-x+1/2,z,-y+1/2
-x+1/2,-z,y+1/2
z+1/2,y,x+1/2
z+1/2,-y,-x+1/2
-z+1/2,y,-x+1/2
-z+1/2,-y,x+1/2
x+1/2,y+1/2,z
x+1/2,-y+1/2,-z
-x+1/2,y+1/2,-z
-x+1/2,-y+1/2,z
y+1/2,z+1/2,x
y+1/2,-z+1/2,-x
-y+1/2,z+1/2,-x
-y+1/2,-z+1/2,x
z+1/2,x+1/2,y
z+1/2,-x+1/2,-y
-z+1/2,x+1/2,-y
-z+1/2,-x+1/2,y
-y+1/2,-x+1/2,-z
-y+1/2,x+1/2,z
y+1/2,-x+1/2,z
y+1/2,x+1/2,-z
-x+1/2,-z+1/2,-y
-x+1/2,z+1/2,y
x+1/2,-z+1/2,y
x+1/2,z+1/2,-y
-z+1/2,-y+1/2,-x
-z+1/2,y+1/2,x
z+1/2,-y+1/2,x
z+1/2,y+1/2,-x
-x+1/2,-y+1/2,-z
-x+1/2,y+1/2,z
x+1/2,-y+1/2,z
x+1/2,y+1/2,-z
-y+1/2,-z+1/2,-x
-y+1/2,z+1/2,x
y+1/2,-z+1/2,x
y+1/2,z+1/2,-x
-z+1/2,-x+1/2,-y
-z+1/2,x+1/2,y
z+1/2,-x+1/2,y
z+1/2,x+1/2,-y
y+1/2,x+1/2,z
y+1/2,-x+1/2,-z
-y+1/2,x+1/2,-z
-y+1/2,-x+1/2,z
x+1/2,z+1/2,y
x+1/2,-z+1/2,-y
-x+1/2,z+1/2,-y
-x+1/2,-z+1/2,y
z+1/2,y+1/2,x
z+1/2,-y+1/2,-x
-z+1/2,y+1/2,-x
-z+1/2,-y+1/2,x
 
loop_
_atom_site_label
_atom_site_type_symbol
_atom_site_fract_x
_atom_site_fract_y
_atom_site_fract_z
_atom_site_occupancy
Li1 Li   0.00000   0.00000   0.00000   1.00000
H1 H   0.50000   0.50000   0.50000   1.00000
 
